LAMMPS (22 Aug 2018)
####################################################
#  Transport properties of NaB(OH)4 in water
#  at 298 K and 1 atm.
#################### SETTING UP ####################
units real
dimension 3
newton on
boundary p p p
atom_style full

#################### VARIABLES ####################
variable Temp equal 298       # Temperature in K
variable Pres equal 1.0       # Pressure in atm.

variable RandomSeed equal 500 # The random seed for velocity
variable tstep equal 1.0      # 1fs
variable Ninptpre equal 10000 # Pre-initialize the NPT ensemble (very small timesteps)
variable Ninpt equal 5000000  # Initialize the NPT ensemble
variable Npnpt equal 5000000  # Production in the NPT ensemble (volume)
variable Ninvtpre equal 10000 # Pre-initialize the NVT ensemble (very small timesteps)
variable Ninvt equal 1000000   # Initialize the NVT ensemble
variable Nrun equal 20000000    # production in the NVT ensemble
variable Nf equal 10000       # Nfreq (fix ave/time and thermo)
variable Ne equal  10         # Nevery (fix ave/time)
variable Nr equal 10000/10
variable NBR equal 5000000/10
variable Nd equal 20000000/10

variable nb equal 10          # Number of blocks (fix ordern)
variable nbe equal 20         # Number of block elements (fix ordern)
variable Nvisc equal 5        # Nevery for viscosity (fix ordern: sample data at (Nvisc*2))
variable Ncond equal 5        # Nevery for Tconductivity (fix ordern: sample data at (Ncond*2))
variable Ndiff equal 1000     # Nevery for diffusivity (fix ordern: sample data at (Ndiff))
variable Nwrit equal 100000   # Nwrite for transport properties (fix ordern: write every (Nwrit))

variable Nrdfe equal 100      # Nevery for RDF (fix ave/time)
variable Nrdfw equal 1000     # Nwrite for RDF (compute rdf/ext: write every (Nrdfw*Nrdfe))
variable binnum equal 2000    # Number of bins for RDF

#################### ATOM DEFINITION and FORCEFIELD ####################
read_data ./data.lmp                     # read the positions
  orthogonal box = (0 0 0) to (33.2816 33.2816 33.2816)
  reading atoms ...
  3384 atoms
  scanning bonds ...
  scanning angles ...
  reading bonds ...
  2274 bonds
  reading angles ...
  1324 angles
include ./forcefield.data                  # read the force field
# ----------------- INTERMOLECULAR POTENTIAL -------------------
# ---------------Developed for Na(B(OH)4) in water (tip4p/2005) system-----

mass 1 15.9994 # Ow
mass 2 1.00794 # Hw
mass 3 22.9397 # Na
mass 4 0.0500  # M
mass 5 10.811  # B(B(OH)4)
mass 6 17.008  # OH(B(OH)4)
mass 7 0.9830  # (H2 - 0.05)/2
mass 8 0.0500  # L site Marx force field

pair_style lj/cut/tip4p/long 1 2 1 1 0.1546 10.0
kspace_style pppm/tip4p 1.0e-5
pair_modify tail yes # ATC

#-----------------Combinations----------------------------

pair_coeff 1 1 0.1852 3.1589     # Ow-Ow
pair_coeff 1 2 0.0000 0.0000     # Ow-Hw
pair_coeff 1 3 0.1897 2.60838    # Ow-Na
pair_coeff 1 4 0.0000 0.0000     # Ow-M
pair_coeff 1 5 0.0000 0.0000     # Ow-B(B(OH)4)
pair_coeff 1 6 0.1361 3.0100     # Ow-OH(B(OH)4)
pair_coeff 1 7 0.0000 0.0000     # Ow-H (Marx)
pair_coeff 1 8 0.1162 3.05845    # Ow-L (Marx)

pair_coeff 2 2 0.0000 0.0000     # Hw-Hw
pair_coeff 2 3 0.0000 0.0000     # Hw-Na
pair_coeff 2 4 0.0000 0.0000     # Hw-M
pair_coeff 2 5 0.0000 0.0000     # Hw-B(B(OH)4)
pair_coeff 2 6 0.0000 0.0000     # Hw-OH(B(OH)4)
pair_coeff 2 7 0.0000 0.0000     # Hw-H (Marx)
pair_coeff 2 8 0.0000 0.0000     # Hw-L (Marx)

pair_coeff 3 3 0.3519 2.2174     # Na-Na
pair_coeff 3 4 0.0000 0.0000     # Na-M
pair_coeff 3 5 0.0000 0.0000     # Na-B(B(OH)4)
pair_coeff 3 6 0.1876 2.5837     # Na-OH(B(OH)4)
pair_coeff 3 7 0.0000 0.0000     # Na-H (Marx)
pair_coeff 3 8 0.1602 2.5877     # Na-L (Marx)

pair_coeff 4 4 0.0000 0.0000     # M-M
pair_coeff 4 5 0.0000 0.0000     # M-B
pair_coeff 4 6 0.0000 0.0000     # M-OH
pair_coeff 4 7 0.0000 0.0000     # M-H (Marx)
pair_coeff 4 8 0.0000 0.0000     # M-L (Marx)

pair_coeff 5 5 0.0000 0.0000     # B(B(OH)4)-B(B(OH)4)
pair_coeff 5 6 0.0000 0.0000     # B(B(OH)4)-OH(B(OH)4)
pair_coeff 5 7 0.0000 0.0000     # B(B(OH)4)-H (Marx)
pair_coeff 5 8 0.0000 0.0000     # B(B(OH)4)-L (Marx)

pair_coeff 6 6 0.1000 2.9500     # OH(B(OH)4)-OH(B(OH)4)
pair_coeff 6 7 0.0000 0.0000     # OH(B(OH)4)-H (Marx)
pair_coeff 6 8 0.0853 2.9540     # OH(B(OH)4)-L (Marx)

pair_coeff 7 7 0.0000 0.0000     # H-H (Marx)
pair_coeff 7 8 0.0000 0.0000     # H-L (Marx)

pair_coeff 8 8 0.0729 2.9580     # L-L (Marx)

#Specify bonds/angles
bond_style  harmonic
bond_coeff 1 1000 0.9572          # Ow-Hw
bond_coeff 2 1000 0.5000          # Na-M
bond_coeff 3 1000 1.4900          # B(B(OH)4)-OH(B(OH)4)
bond_coeff 4 1000 0.7400          # H - L

angle_style harmonic
angle_coeff 1 100 104.52          # H-O-H
angle_coeff 2 100 109.5           # OH(B(OH)4)-B(B(OH)4)-OH(B(OH)4)
#dihedral_style none
#improper_style none

#Specify charges

set type 1 charge -1.1128        # O
  1000 settings made for charge
set type 2 charge +0.5564        # OH
  2000 settings made for charge
set type 3 charge +0.8500        # Na
  54 settings made for charge
set type 4 charge 0.00000        # M
  54 settings made for charge
set type 5 charge +2.5500        # B(B(OH)4)
  54 settings made for charge
set type 6 charge -0.8500        # OH(B(OH)4)
  216 settings made for charge
set type 7 charge +0.4680        # H (Marx)
  4 settings made for charge
set type 8 charge -0.9360        # L (Marx)
  2 settings made for charge

#################### INITIALIZATION ####################
# groups for the central atoms of water (O) and methanol (O)
group wat type 1      # The Oxygen of WATER molecules
1000 atoms in group wat
group Na type 3
54 atoms in group Na
group B type 5
54 atoms in group B
group OH type 6
216 atoms in group OH
group H2  type 8
2 atoms in group H2

# neigbor lists
neighbor 2.0 bin
neigh_modify every 1 delay 0 check yes

# velocity-Verlet integrator
run_style verlet

# minimizing the system using the conjugate gradient method
#min_style cg
#min_modify dmax 0.05
#minimize 1.0e-6 1.0e-6 1000 10000
#reset_timestep 0

# initializing velocities
velocity all create 298 500

# rate of writing thermal properties to the log file
thermo 10000

#################### 1) Initialize the NPT ensemble ####################
# applying the shake algorithm for rigid molecules and the NPT solver
#fix constrain all shake 1.0e-6 1000 0 b 1 a 1
fix integrate all rigid/npt/small molecule temp 298 298 10.0 iso 1 1 100.0
1110 rigid bodies with 3384 atoms
  1.49001 = max distance from body owner to body atom

# Initializing the whole system with very small timesteps in the NPT ensemble
timestep 0.001
run 10000
PPPM initialization ...
  extracting TIP4P info from pair style
  G vector (1/distance) = 0.312312
  grid = 32 32 32
  stencil order = 5
  estimated absolute RMS force accuracy = 0.00371576
  estimated relative force accuracy = 1.11899e-05
  3d grid and FFT values/proc = 2475 256
  update every 1 steps, delay 0 steps, check yes
Step Temp E_pair E_mol TotEng Press Volume
0    295.45101   -316.21653    547.60901    2169.1894    5810478.2     36864.83
Loop time of 11.2763 on 128 procs for 10000 steps with 3384 atoms

timestep 0.01
run 10000
PPPM initialization ...
  extracting TIP4P info from pair style
  G vector (1/distance) = 0.311747
  grid = 32 32 32
  stencil order = 5
  estimated absolute RMS force accuracy = 0.00380391
  estimated relative force accuracy = 1.14554e-05
  3d grid and FFT values/proc = 2475 256
Step Temp E_pair E_mol TotEng Press Volume
10000    928.78094    -5627.911    547.61038    1011.3653    3110.5216    37746.532
Loop time of 11.5705 on 128 procs for 10000 steps with 3384 atoms

timestep 0.1
run 10000
PPPM initialization ...
  extracting TIP4P info from pair style
  G vector (1/distance) = 0.314707
  grid = 32 32 32
  stencil order = 5
  estimated absolute RMS force accuracy = 0.00336244
  estimated relative force accuracy = 1.01259e-05
  3d grid and FFT values/proc = 2475 256
Step Temp E_pair E_mol TotEng Press Volume
20000    450.74167   -15371.864    547.62343   -11867.927    2316.4499    33326.872
Loop time of 13.7764 on 128 procs for 10000 steps with 3384 atoms

timestep 0.2
run 10000
PPPM initialization ...
  extracting TIP4P info from pair style
  G vector (1/distance) = 0.315345
  grid = 32 32 32
  stencil order = 5
  estimated absolute RMS force accuracy = 0.00327355
  estimated relative force accuracy = 9.85819e-06
  3d grid and FFT values/proc = 2475 256
Step Temp E_pair E_mol TotEng Press Volume
30000    307.54166    -19266.39    547.62969   -16701.664    5676.7277    32435.417
Loop time of 13.744 on 128 procs for 10000 steps with 3384 atoms

timestep 0.5
run 10000
PPPM initialization ...
  extracting TIP4P info from pair style
  G vector (1/distance) = 0.315058
  grid = 32 32 32
  stencil order = 5
  estimated absolute RMS force accuracy = 0.00331334
  estimated relative force accuracy = 9.97802e-06
  3d grid and FFT values/proc = 2475 256
Step Temp E_pair E_mol TotEng Press Volume
40000    304.73935    -19415.35    547.62764   -16869.006     407.0679    32834.535
Loop time of 13.4856 on 128 procs for 10000 steps with 3384 atoms

reset_timestep 0

# continuing the initialization with the final value of timestep
unfix integrate
fix integrate all rigid/npt/small molecule temp 298 298 100.0 iso 1 1 1000.0
1110 rigid bodies with 3384 atoms
  1.49042 = max distance from body owner to body atom

timestep 1
run 5000000
PPPM initialization ...
  extracting TIP4P info from pair style
  G vector (1/distance) = 0.314944
  grid = 32 32 32
  stencil order = 5
  estimated absolute RMS force accuracy = 0.00332919
  estimated relative force accuracy = 1.00258e-05
  3d grid and FFT values/proc = 2475 256
Step Temp E_pair E_mol TotEng Press Volume
0    294.93988   -19528.939    547.68037   -17046.815    1416.9578    32993.508
Averages over the last 251 of 501 rows, steps 2500000 to 5000000:
Temp E_pair E_mol TotEng Press Volume
297.592 -19619.1 547.681 -17119.6 -65.3411 32928.5
Loop time of 7301.75 on 128 procs for 5000000 steps with 3384 atoms

reset_timestep 0

#################### 2) Obtaining average volume in NPT ######################
# Getting the average volume of the system
variable Volume equal vol
fix VoluAve all ave/time 1 5000000 5000000 v_Volume file volume.dat

variable TotEn1 equal etotal
fix TEAve1 all ave/time 10 1000 10000 v_TotEn1 file TotalENPT.dat

variable PotEn1 equal pe
fix PEAve1 all ave/time 10 1000 10000 v_PotEn1 file PotenENPT.dat

compute T1 all temp
fix TempAve1 all ave/time 10 1000 10000 c_T1 file temperatureNPT.dat

compute P1 all pressure T1
fix PressAve1 all ave/time 10 1000 10000 c_P1 file pressureNPT.dat

run 5000000
PPPM initialization ...
  extracting TIP4P info from pair style
  G vector (1/distance) = 0.314704
  grid = 32 32 32
  stencil order = 5
  estimated absolute RMS force accuracy = 0.00336287
  estimated relative force accuracy = 1.01272e-05
  3d grid and FFT values/proc = 2475 256
Step Temp E_pair E_mol TotEng Press Volume
0    301.17225   -19514.321    547.68038    -16991.32    427.92798    33331.198
Averages over the last 251 of 501 rows, steps 2500000 to 5000000:
Temp E_pair E_mol TotEng Press Volume
297.696 -19621.4 547.681 -17121.2 25.5779 32865.1
Loop time of 7387.34 on 128 procs for 5000000 steps with 3384 atoms

reset_timestep 0

#################### 3) Initializing the NVT ensemble ####################
# scaling the size of the system to the average volume
variable sidesize equal (f_VoluAve^(1.0/3.0))    # get the volume
variable xlow equal xlo
variable ylow equal ylo
variable zlow equal zlo
variable xhig equal (xlo+32.0414536887371)
variable yhig equal (ylo+32.0414536887371)
variable zhig equal (zlo+32.0414536887371)
change_box all x final 0.584602155304896 32.626055844042 y final 0.584602155304896 32.626055844042 z final 0.584602155304896 32.626055844042
  orthogonal box = (0.584602 0.584602 0.584602) to (32.6261 32.697 32.697)
  orthogonal box = (0.584602 0.584602 0.584602) to (32.6261 32.6261 32.697)
  orthogonal box = (0.584602 0.584602 0.584602) to (32.6261 32.6261 32.6261)
unfix VoluAve
unfix TEAve1
unfix PEAve1
unfix TempAve1
unfix PressAve1

# changing the ensemble to NVT
unfix integrate
fix integrate all rigid/nvt/small molecule temp 298 298 100.0
1110 rigid bodies with 3384 atoms
  1.49041 = max distance from body owner to body atom

# Initializing the whole system with very small timesteps in the NVT ensemble
timestep 0.001
run 10000
PPPM initialization ...
  extracting TIP4P info from pair style
  G vector (1/distance) = 0.315014
  grid = 32 32 32
  stencil order = 5
  estimated absolute RMS force accuracy = 0.00331942
  estimated relative force accuracy = 9.99633e-06
  3d grid and FFT values/proc = 2475 256
Step Temp E_pair E_mol TotEng Press
0    300.78001   -19498.459    812.50799   -16713.202    13896.434
Loop time of 10.7999 on 128 procs for 10000 steps with 3384 atoms

timestep 0.01
run 10000
PPPM initialization ...
  extracting TIP4P info from pair style
  G vector (1/distance) = 0.315014
  grid = 32 32 32
  stencil order = 5
  estimated absolute RMS force accuracy = 0.00331942
  estimated relative force accuracy = 9.99633e-06
  3d grid and FFT values/proc = 2475 256
Step Temp E_pair E_mol TotEng Press
10000    303.82192   -19518.502    812.50799   -16713.294    13597.276
Loop time of 10.8882 on 128 procs for 10000 steps with 3384 atoms

timestep 0.1
run 10000
PPPM initialization ...
  extracting TIP4P info from pair style
  G vector (1/distance) = 0.315014
  grid = 32 32 32
  stencil order = 5
  estimated absolute RMS force accuracy = 0.00331942
  estimated relative force accuracy = 9.99633e-06
  3d grid and FFT values/proc = 2475 256
Step Temp E_pair E_mol TotEng Press
20000    293.71583   -19503.624    812.50799     -16764.7    2081.8565
Loop time of 10.8179 on 128 procs for 10000 steps with 3384 atoms

timestep 0.2
run 10000
PPPM initialization ...
  extracting TIP4P info from pair style
  G vector (1/distance) = 0.315014
  grid = 32 32 32
  stencil order = 5
  estimated absolute RMS force accuracy = 0.00331942
  estimated relative force accuracy = 9.99633e-06
  3d grid and FFT values/proc = 2475 256
Step Temp E_pair E_mol TotEng Press
30000    301.98492   -19596.146    812.50799   -16802.987    568.38618
Loop time of 11.1793 on 128 procs for 10000 steps with 3384 atoms

timestep 0.5
run 10000
PPPM initialization ...
  extracting TIP4P info from pair style
  G vector (1/distance) = 0.315014
  grid = 32 32 32
  stencil order = 5
  estimated absolute RMS force accuracy = 0.00331942
  estimated relative force accuracy = 9.99633e-06
  3d grid and FFT values/proc = 2475 256
Step Temp E_pair E_mol TotEng Press
40000    297.45566   -19492.028    812.50799   -16728.575    1562.5659
Loop time of 11.9344 on 128 procs for 10000 steps with 3384 atoms

reset_timestep 0

# continuing the initialization with the final value of timestep
timestep 1
run 1000000
PPPM initialization ...
  extracting TIP4P info from pair style
  G vector (1/distance) = 0.315014
  grid = 32 32 32
  stencil order = 5
  estimated absolute RMS force accuracy = 0.00331942
  estimated relative force accuracy = 9.99633e-06
  3d grid and FFT values/proc = 2475 256
Step Temp E_pair E_mol TotEng Press
0    303.21635   -19437.336    812.50799     -16636.1    1220.6042
Averages over the last 51 of 101 rows, steps 500000 to 1000000:
Temp E_pair E_mol TotEng Press
297.973 -19513.1 812.508 -16746.3 -11.1519
Loop time of 1234.96 on 128 procs for 1000000 steps with 3384 atoms

reset_timestep 0

#################### 4) Obtaining average total energy in NVT #####################
variable T1 equal temp
variable TE1 equal etotal
variable KE1 equal ke
variable PE1 equal pe
fix Tave1 all ave/time 20000000 1 20000000 v_T1
fix TEave1 all ave/time 1 20000000 20000000 v_TE1
fix KEave1 all ave/time 20000000 1 20000000 v_KE1
fix PEave1 all ave/time 20000000 1 20000000 v_PE1

dump trjectory all xyz 2000000 movie.xyz
dump_modify trjectory element O H Na M B OH H L

# computing average total energy, pontential energy, temperature, and pressure over time
variable TotEn equal etotal
fix TEAve all ave/time 10 1000 10000 v_TotEn file TotalE.dat

variable PotEn equal pe
fix PEAve all ave/time 10 1000 10000 v_PotEn file PotenE.dat

compute T all temp
fix TempAve all ave/time 10 1000 10000 c_T file temperature.dat

compute P all pressure T
fix PressAve all ave/time 10 1000 10000 c_P file pressure.dat

# computing self-diffusion and Onsager coefficients using the OCTP plugin
compute positions all position
fix f3 all ordern diffusivity 1000 100000 c_positions nb 10 nbe 20 file diffself.dat diffonsag.dat title "Water at 298 K and 1 atm"

# computing shear and bulk viscosities  using the OCTP plugin
fix f1 all ordern viscosity 5 100000 c_P nb 10 nbe 20 file viscosity.dat title "Water at 298 K and 1 atm"

# computing the RDF for all group pairs
compute rdfs all rdf/ext Nbin 2000 Nwrite 1000 file rdf.dat
fix f4 all ave/time 1 1 100 c_rdfs

# Thermo style for outputing system properties to the log file
thermo_style custom step temp f_TempAve press f_PressAve pe ke etotal
thermo_modify flush yes

#thermo 1
run 20000000
PPPM initialization ...
  extracting TIP4P info from pair style
  G vector (1/distance) = 0.315014
  grid = 32 32 32
  stencil order = 5
  estimated absolute RMS force accuracy = 0.00331942
  estimated relative force accuracy = 9.99633e-06
  3d grid and FFT values/proc = 2475 256
Step Temp f_TempAve Press f_PressAve PotEng KinEng TotEng
0    288.08058            0    2053.1155            0   -18755.377    1889.4559   -16865.921
Averages over the last 1001 of 2001 rows, steps 10000000 to 20000000:
Temp f_TempAve Press f_PressAve PotEng KinEng TotEng
297.738 297.585 23.8318 30.449 -18714 1952.8 -16761.2
Loop time of 27705.7 on 128 procs for 20000000 steps with 3384 atoms

quit
